Circuit: * C:\Users\Hendrik-Jan\Documents\Kicad project files\Projecten\Diffprobe\Sim\Batteryswitch.asc

WARNING: Node NC_03 is floating.

WARNING: Less than two connections to node NC_01.  This node is used by R6.
WARNING: Less than two connections to node NC_02.  This node is used by M3.
Direct Newton iteration for .op point succeeded.

Date: Sat Aug 21 13:54:24 2021
Total elapsed time: 0.181 seconds.

tnom = 27
temp = 27
method = modified trap
totiter = 2110
traniter = 2088
tranpoints = 1045
accept = 1045
rejected = 0
matrix size = 38
fillins = 38
solver = Normal
Matrix Compiler1: 4.62 KB object code size  1.1/0.5/[0.3]
Matrix Compiler2: 3.75 KB object code size  0.3/0.4/[0.3]

