Circuit: * C:\Users\Hendrik-Jan\Documents\Kicad project files\Projecten\Diffprobe\Sim\Diffprobe.asc

WARNING: Less than two connections to node NC_01.  This node is used by V5.
WARNING: Less than two connections to node NC_02.  This node is used by V6.
Early termination of direct N-R iteration.
Direct Newton iteration failed to find .op point.  (Use ".option noopiter" to skip.)
Starting Gmin stepping
Gmin = 10
Gmin = 1.07374
Gmin = 0.115292
Gmin = 0.0123794
Gmin = 0.00132923
Gmin = 0.000142725
Gmin = 1.5325e-05
Gmin = 1.6455e-06
Gmin = 1.76685e-07
Gmin = 1.89714e-08
Gmin = 2.03704e-09
vernier = 0.5
vernier = 0.25
vernier = 0.125
Gmin = 9.8071e-10
vernier = 0.0625
vernier = 0.03125
vernier = 0.0416667
Gmin = 9.33558e-10
vernier = 0.0555555
Gmin = 8.27346e-10
vernier = 0.074074
vernier = 0.0987653
Gmin = 6.79367e-10
vernier = 0.131687
vernier = 0.175583
Gmin = 4.98039e-10
vernier = 0.23411
Gmin = 3.0232e-10
vernier = 0.312147
vernier = 0.416196
Gmin = 1.35207e-10
vernier = 0.554928
vernier = 0.739903
Gmin = 3.88862e-11
vernier = 0.986537
Gmin = 5.5278e-12
vernier = 1
Gmin = 5.95145e-13
Gmin = 0
Gmin stepping succeeded in finding the operating point.


Date: Thu Jul 15 20:04:07 2021
Total elapsed time: 0.242 seconds.

tnom = 27
temp = 27
method = trap
totiter = 1368
traniter = 0
tranpoints = 0
accept = 0
rejected = 0
matrix size = 159
fillins = 355
solver = Normal
Matrix Compiler1:    1704 opcodes
Matrix Compiler2: 21.78 KB object code size  3.1/2.7/[1.2]

