Circuit: * C:\Users\Hendrik-Jan\Documents\Kicad project files\Projecten\Diffprobe\Sim\Diffprobe.asc

WARNING: Less than two connections to node NC_01.  This node is used by V5.
WARNING: Less than two connections to node NC_02.  This node is used by R8.
WARNING: Less than two connections to node NC_03.  This node is used by R9.
WARNING: Less than two connections to node NC_04.  This node is used by V6.
Direct Newton iteration failed to find .op point.  (Use ".option noopiter" to skip.)
Starting Gmin stepping
Gmin = 10
vernier = 0.5
vernier = 0.25
Gmin = 3.08405
vernier = 0.125
vernier = 0.166667
Gmin = 2.33946
vernier = 0.0833333
vernier = 0.0416667
Gmin = 2.0685
vernier = 0.0555555
vernier = 0.074074
Gmin = 1.78363
vernier = 0.0987653
vernier = 0.131687
Gmin = 1.4118
vernier = 0.175583
vernier = 0.0877914
Gmin = 1.07818
vernier = 0.0438957
vernier = 0.0219478
vernier = 0.0109739
Gmin = 1.05199
vernier = 0.00548696
Gmin = 1.03625
vernier = 0.00731595
vernier = 0.00365797
vernier = 0.0048773
vernier = 0.00243865
Gmin = 1.0309
vernier = 0.00325153
vernier = 0.00162576
Gmin = 1.0263
vernier = 0.00216769
vernier = 0.00108384
Gmin = 1.02324
vernier = 0.00144512
vernier = 0.000722562
Gmin = 1.02075
vernier = 0.000963415
vernier = 0.00128455
Gmin = 1.0184
vernier = 0.000642277
vernier = 0.000856369
vernier = 0.000428184
Gmin = 1.01747
vernier = 0.000570912
Gmin = 1.0162
vernier = 0.000761216
vernier = 0.000570912
vernier = 0.000761216
vernier = 0.000570912
Gmin = 1.01533
vernier = 0.000428184
vernier = 0.000570912
vernier = 0.000428184
Gmin = 1.01468
vernier = 0.000570912
vernier = 0.000428184
Gmin = 1.01381
Gmin = 0
Gmin stepping failed

Starting source stepping with srcstepmethod=0
Source Step = 3.0303%
Source Step = 33.3333%
Source Step = 63.6364%
Source Step = 93.9394%
Source stepping succeeded in finding the operating point.


Date: Fri Jul 23 14:31:21 2021
Total elapsed time: 3.585 seconds.

tnom = 27
temp = 27
method = trap
totiter = 10125
traniter = 0
tranpoints = 0
accept = 0
rejected = 0
matrix size = 308
fillins = 658
solver = Normal
Matrix Compiler1:    2804 opcodes
Matrix Compiler2: 35.25 KB object code size  5.0/6.0/[2.7]

