Circuit: * C:\Users\Hendrik-Jan\Documents\Kicad project files\Projecten\Diffprobe\Sim\Diffprobe.asc

WARNING: Less than two connections to node N013.  This node is used by V6.
Direct Newton iteration failed to find .op point.  (Use ".option noopiter" to skip.)
Starting Gmin stepping
Gmin = 10
vernier = 0.5
vernier = 0.25
Gmin = 3.08405
vernier = 0.125
vernier = 0.166667
Gmin = 2.33946
vernier = 0.0833333
vernier = 0.0416667
Gmin = 2.0685
vernier = 0.0555555
vernier = 0.074074
Gmin = 1.78363
vernier = 0.0987653
vernier = 0.131687
Gmin = 1.4118
vernier = 0.175583
vernier = 0.0877914
Gmin = 1.07818
vernier = 0.0438957
vernier = 0.0219478
vernier = 0.0109739
Gmin = 1.05199
vernier = 0.00548696
Gmin = 1.03625
vernier = 0.00731595
vernier = 0.00365797
vernier = 0.0048773
vernier = 0.00243865
Gmin = 1.0309
vernier = 0.00325153
vernier = 0.00162576
Gmin = 1.0263
vernier = 0.00216769
vernier = 0.00108384
Gmin = 1.02324
vernier = 0.00144512
vernier = 0.000722562
Gmin = 1.02075
vernier = 0.000963415
vernier = 0.00128455
Gmin = 1.0184
vernier = 0.000642277
vernier = 0.000856369
vernier = 0.000428184
Gmin = 1.01747
vernier = 0.000570912
Gmin = 1.0162
vernier = 0.000761216
vernier = 0.000570912
vernier = 0.000761216
vernier = 0.000570912
Gmin = 1.01533
vernier = 0.000428184
vernier = 0.000570912
vernier = 0.000428184
Gmin = 1.01468
vernier = 0.000570912
vernier = 0.000428184
Gmin = 1.01381
Gmin = 0
Gmin stepping failed

Starting source stepping with srcstepmethod=0
Source Step = 3.0303%
Source Step = 33.3333%
Source Step = 63.6364%
Source Step = 93.9394%
Source stepping succeeded in finding the operating point.


Date: Sun Aug  8 16:29:40 2021
Total elapsed time: 1891.188 seconds.

tnom = 27
temp = 27
method = modified trap
totiter = 48229299
traniter = 48219134
tranpoints = 10260651
accept = 7660490
rejected = 2600161
matrix size = 285
fillins = 590
solver = Normal
Thread vector: 18.2/9.5[6] 15.1/5.7[6] 5.3/3.8[6] 1.6/4.3[1]  2592/500
Matrix Compiler1: 44.63 KB object code size  22.1/10.9/[5.9]
Matrix Compiler2: 31.65 KB object code size  9.5/11.7/[2.1]

